<routes>
        <vType id="typeWN" accel="0.8" decel="4.5" sigma="0.5" length="5" minGap="2.5" maxSpeed="16.67" guiShape="passenger"/>
        <vType id="typeWE" accel="0.8" decel="4.5" sigma="0.5" length="5" minGap="3" maxSpeed="16.67" guiShape="passenger"/>
        <vType id="typeWS" accel="0.8" decel="4.5" sigma="0.5" length="5" minGap="2" maxSpeed="16.67" guiShape="motorcycle"/>
        <vType id="typeNE" accel="0.8" decel="4.5" sigma="0.5" length="5" minGap="2.5" maxSpeed="16.67" guiShape="passenger"/>
        <vType id="typeNS" accel="0.8" decel="4.5" sigma="0.5" length="5" minGap="3" maxSpeed="16.67" guiShape="passenger"/>
        <vType id="typeNW" accel="0.8" decel="4.5" sigma="0.5" length="5" minGap="2" maxSpeed="16.67" guiShape="passenger"/>
        <vType id="typeES" accel="0.8" decel="4.5" sigma="0.5" length="5" minGap="2.5" maxSpeed="16.67" guiShape="passenger"/>
        <vType id="typeEW" accel="0.8" decel="4.5" sigma="0.5" length="5" minGap="3" maxSpeed="16.67" guiShape="truck"/>
        <vType id="typeEN" accel="0.8" decel="4.5" sigma="0.5" length="5" minGap="2.5" maxSpeed="16.67" guiShape="passenger"/>
        <vType id="typeSW" accel="0.8" decel="4.5" sigma="0.5" length="5" minGap="2.5" maxSpeed="16.67" guiShape="passenger"/>
        <vType id="typeSN" accel="0.8" decel="4.5" sigma="0.5" length="5" minGap="2.5" maxSpeed="16.67" guiShape="passenger"/>   
        <vType id="typeSE" accel="0.8" decel="4.5" sigma="0.5" length="7" minGap="3" maxSpeed="25" guiShape="bus"/>
        
        <route id="left_up" edges="E9 E8" />
        <route id="left_right" edges="E9 E10" />
        <route id="left_down" edges="E9 E11" />
        <route id="up_right" edges="-E8 E10" />
        <route id="up_down" edges="-E8 E11" />
        <route id="up_left" edges="-E8 -E9" />
        <route id="right_down" edges="-E10 E11" />
        <route id="right_left" edges="-E10 -E9" />
        <route id="right_up" edges="-E10 E8" />
        <route id="down_left" edges="-E11 -E9" />
        <route id="down_up" edges="-E11 E8" />
        <route id="down_right" edges="-E11 E10" />
    <vehicle id="up_left_0" type="typeNW" route="up_left" depart="1" color="1,0,0"/>
    <vehicle id="down_up_1" type="typeWN" route="down_up" depart="2" />
    <vehicle id="down_right_2" type="typeWE" route="down_right" depart="2" color="1,0,0"/>
    <vehicle id="right_down_3" type="typeES" route="right_down" depart="3" />
    <vehicle id="left_down_4" type="typeWS" route="left_down" depart="4" color="1,0,0"/>
    <vehicle id="up_down_5" type="typeNS" route="up_down" depart="4" />
    <vehicle id="down_up_6" type="typeWN" route="down_up" depart="4" />
    <vehicle id="up_right_7" type="typeNE" route="up_right" depart="5" />
    <vehicle id="right_down_8" type="typeES" route="right_down" depart="5" />
    <vehicle id="right_left_9" type="typeEW" route="right_left" depart="5" />
    <vehicle id="left_down_10" type="typeWS" route="left_down" depart="6" color="1,0,0"/>
    <vehicle id="up_left_11" type="typeNW" route="up_left" depart="7" color="1,0,0"/>
    <vehicle id="right_left_12" type="typeEW" route="right_left" depart="7" />
    <vehicle id="down_right_13" type="typeWE" route="down_right" depart="7" color="1,0,0"/>
    <vehicle id="up_left_14" type="typeNW" route="up_left" depart="8" color="1,0,0"/>
    <vehicle id="up_left_15" type="typeNW" route="up_left" depart="9" color="1,0,0"/>
    <vehicle id="right_left_16" type="typeEW" route="right_left" depart="10" />
    <vehicle id="down_up_17" type="typeWN" route="down_up" depart="11" />
    <vehicle id="down_right_18" type="typeWE" route="down_right" depart="11" color="1,0,0"/>
    <vehicle id="down_up_19" type="typeWN" route="down_up" depart="12" />
    <vehicle id="down_right_20" type="typeWE" route="down_right" depart="13" color="1,0,0"/>
    <vehicle id="left_down_21" type="typeWS" route="left_down" depart="14" color="1,0,0"/>
    <vehicle id="right_left_22" type="typeEW" route="right_left" depart="14" />
    <vehicle id="down_up_23" type="typeWN" route="down_up" depart="14" />
    <vehicle id="left_down_24" type="typeWS" route="left_down" depart="19" color="1,0,0"/>
    <vehicle id="down_left_25" type="typeWS" route="down_left" depart="20" />
    <vehicle id="right_up_26" type="typeEN" route="right_up" depart="21" color="1,0,0"/>
    <vehicle id="down_up_27" type="typeWN" route="down_up" depart="21" />
    <vehicle id="down_up_28" type="typeWN" route="down_up" depart="22" />
    <vehicle id="down_right_29" type="typeWE" route="down_right" depart="24" color="1,0,0"/>
    <vehicle id="right_down_30" type="typeES" route="right_down" depart="25" />
    <vehicle id="down_up_31" type="typeWN" route="down_up" depart="25" />
    <vehicle id="left_down_32" type="typeWS" route="left_down" depart="26" color="1,0,0"/>
    <vehicle id="down_up_33" type="typeWN" route="down_up" depart="27" />
    <vehicle id="up_right_34" type="typeNE" route="up_right" depart="29" />
    <vehicle id="down_right_35" type="typeWE" route="down_right" depart="30" color="1,0,0"/>
    <vehicle id="left_right_36" type="typeWE" route="left_right" depart="31" />
    <vehicle id="left_right_37" type="typeWE" route="left_right" depart="33" />
    <vehicle id="right_down_38" type="typeES" route="right_down" depart="33" />
    <vehicle id="down_up_39" type="typeWN" route="down_up" depart="33" />
    <vehicle id="left_down_40" type="typeWS" route="left_down" depart="35" color="1,0,0"/>
    <vehicle id="down_right_41" type="typeWE" route="down_right" depart="35" color="1,0,0"/>
    <vehicle id="up_down_42" type="typeNS" route="up_down" depart="36" />
    <vehicle id="left_down_43" type="typeWS" route="left_down" depart="38" color="1,0,0"/>
    <vehicle id="left_down_44" type="typeWS" route="left_down" depart="41" color="1,0,0"/>
    <vehicle id="down_up_45" type="typeWN" route="down_up" depart="41" />
    <vehicle id="down_left_46" type="typeWS" route="down_left" depart="43" />
    <vehicle id="left_up_47" type="typeWN" route="left_up" depart="45" />
    <vehicle id="up_right_48" type="typeNE" route="up_right" depart="45" />
    <vehicle id="right_left_49" type="typeEW" route="right_left" depart="45" />
    <vehicle id="right_up_50" type="typeEN" route="right_up" depart="46" color="1,0,0"/>
    <vehicle id="left_right_51" type="typeWE" route="left_right" depart="50" />
    <vehicle id="left_right_52" type="typeWE" route="left_right" depart="51" />
    <vehicle id="left_down_53" type="typeWS" route="left_down" depart="51" color="1,0,0"/>
    <vehicle id="down_right_54" type="typeWE" route="down_right" depart="51" color="1,0,0"/>
    <vehicle id="right_left_55" type="typeEW" route="right_left" depart="52" />
    <vehicle id="down_right_56" type="typeWE" route="down_right" depart="54" color="1,0,0"/>
    <vehicle id="right_down_57" type="typeES" route="right_down" depart="55" />
    <vehicle id="left_down_58" type="typeWS" route="left_down" depart="59" color="1,0,0"/>
    <vehicle id="up_left_59" type="typeNW" route="up_left" depart="60" color="1,0,0"/>
    <vehicle id="up_down_60" type="typeNS" route="up_down" depart="61" />
    <vehicle id="down_right_61" type="typeWE" route="down_right" depart="61" color="1,0,0"/>
    <vehicle id="left_down_62" type="typeWS" route="left_down" depart="64" color="1,0,0"/>
    <vehicle id="up_left_63" type="typeNW" route="up_left" depart="64" color="1,0,0"/>
    <vehicle id="left_down_64" type="typeWS" route="left_down" depart="65" color="1,0,0"/>
    <vehicle id="down_up_65" type="typeWN" route="down_up" depart="66" />
    <vehicle id="left_up_66" type="typeWN" route="left_up" depart="67" />
    <vehicle id="left_down_67" type="typeWS" route="left_down" depart="67" color="1,0,0"/>
    <vehicle id="up_right_68" type="typeNE" route="up_right" depart="67" />
    <vehicle id="up_right_69" type="typeNE" route="up_right" depart="69" />
    <vehicle id="left_right_70" type="typeWE" route="left_right" depart="73" />
    <vehicle id="left_down_71" type="typeWS" route="left_down" depart="73" color="1,0,0"/>
    <vehicle id="up_down_72" type="typeNS" route="up_down" depart="73" />
    <vehicle id="right_left_73" type="typeEW" route="right_left" depart="74" />
    <vehicle id="left_up_74" type="typeWN" route="left_up" depart="75" />
    <vehicle id="left_down_75" type="typeWS" route="left_down" depart="75" color="1,0,0"/>
    <vehicle id="right_left_76" type="typeEW" route="right_left" depart="78" />
    <vehicle id="down_up_77" type="typeWN" route="down_up" depart="81" />
    <vehicle id="up_left_78" type="typeNW" route="up_left" depart="82" color="1,0,0"/>
    <vehicle id="up_right_79" type="typeNE" route="up_right" depart="84" />
    <vehicle id="right_down_80" type="typeES" route="right_down" depart="84" />
    <vehicle id="down_up_81" type="typeWN" route="down_up" depart="84" />
    <vehicle id="right_up_82" type="typeEN" route="right_up" depart="88" color="1,0,0"/>
    <vehicle id="down_left_83" type="typeWS" route="down_left" depart="91" />
    <vehicle id="right_down_84" type="typeES" route="right_down" depart="93" />
    <vehicle id="down_left_85" type="typeWS" route="down_left" depart="93" />
    <vehicle id="down_right_86" type="typeWE" route="down_right" depart="93" color="1,0,0"/>
    <vehicle id="left_down_87" type="typeWS" route="left_down" depart="95" color="1,0,0"/>
    <vehicle id="right_down_88" type="typeES" route="right_down" depart="95" />
    <vehicle id="right_left_89" type="typeEW" route="right_left" depart="95" />
    <vehicle id="left_up_90" type="typeWN" route="left_up" depart="96" />
    <vehicle id="left_down_91" type="typeWS" route="left_down" depart="96" color="1,0,0"/>
    <vehicle id="right_down_92" type="typeES" route="right_down" depart="97" />
    <vehicle id="down_right_93" type="typeWE" route="down_right" depart="97" color="1,0,0"/>
    <vehicle id="left_right_94" type="typeWE" route="left_right" depart="99" />
    <vehicle id="up_down_95" type="typeNS" route="up_down" depart="100" />
    <vehicle id="down_up_96" type="typeWN" route="down_up" depart="100" />
    <vehicle id="down_right_97" type="typeWE" route="down_right" depart="100" color="1,0,0"/>
    <vehicle id="right_left_98" type="typeEW" route="right_left" depart="102" />
    <vehicle id="left_down_99" type="typeWS" route="left_down" depart="103" color="1,0,0"/>
    <vehicle id="up_down_100" type="typeNS" route="up_down" depart="103" />
    <vehicle id="left_up_101" type="typeWN" route="left_up" depart="105" />
    <vehicle id="up_left_102" type="typeNW" route="up_left" depart="107" color="1,0,0"/>
    <vehicle id="down_right_103" type="typeWE" route="down_right" depart="108" color="1,0,0"/>
    <vehicle id="right_left_104" type="typeEW" route="right_left" depart="109" />
    <vehicle id="up_left_105" type="typeNW" route="up_left" depart="110" color="1,0,0"/>
    <vehicle id="up_left_106" type="typeNW" route="up_left" depart="111" color="1,0,0"/>
    <vehicle id="up_left_107" type="typeNW" route="up_left" depart="112" color="1,0,0"/>
    <vehicle id="right_up_108" type="typeEN" route="right_up" depart="113" color="1,0,0"/>
    <vehicle id="down_right_109" type="typeWE" route="down_right" depart="113" color="1,0,0"/>
    <vehicle id="up_right_110" type="typeNE" route="up_right" depart="116" />
    <vehicle id="down_right_111" type="typeWE" route="down_right" depart="118" color="1,0,0"/>
    <vehicle id="left_down_112" type="typeWS" route="left_down" depart="119" color="1,0,0"/>
    <vehicle id="up_left_113" type="typeNW" route="up_left" depart="120" color="1,0,0"/>
    <vehicle id="right_up_114" type="typeEN" route="right_up" depart="123" color="1,0,0"/>
    <vehicle id="down_up_115" type="typeWN" route="down_up" depart="123" />
    <vehicle id="left_down_116" type="typeWS" route="left_down" depart="127" color="1,0,0"/>
    <vehicle id="up_left_117" type="typeNW" route="up_left" depart="127" color="1,0,0"/>
    <vehicle id="right_down_118" type="typeES" route="right_down" depart="127" />
    <vehicle id="right_up_119" type="typeEN" route="right_up" depart="127" color="1,0,0"/>
    <vehicle id="left_down_120" type="typeWS" route="left_down" depart="128" color="1,0,0"/>
    <vehicle id="down_up_121" type="typeWN" route="down_up" depart="128" />
    <vehicle id="down_right_122" type="typeWE" route="down_right" depart="130" color="1,0,0"/>
    <vehicle id="left_up_123" type="typeWN" route="left_up" depart="134" />
    <vehicle id="down_up_124" type="typeWN" route="down_up" depart="134" />
    <vehicle id="right_down_125" type="typeES" route="right_down" depart="135" />
    <vehicle id="right_up_126" type="typeEN" route="right_up" depart="135" color="1,0,0"/>
    <vehicle id="right_up_127" type="typeEN" route="right_up" depart="136" color="1,0,0"/>
    <vehicle id="right_down_128" type="typeES" route="right_down" depart="137" />
    <vehicle id="down_right_129" type="typeWE" route="down_right" depart="137" color="1,0,0"/>
    <vehicle id="up_down_130" type="typeNS" route="up_down" depart="138" />
    <vehicle id="right_down_131" type="typeES" route="right_down" depart="139" />
    <vehicle id="down_up_132" type="typeWN" route="down_up" depart="139" />
    <vehicle id="right_left_133" type="typeEW" route="right_left" depart="140" />
    <vehicle id="right_up_134" type="typeEN" route="right_up" depart="140" color="1,0,0"/>
    <vehicle id="down_right_135" type="typeWE" route="down_right" depart="140" color="1,0,0"/>
    <vehicle id="right_up_136" type="typeEN" route="right_up" depart="141" color="1,0,0"/>
    <vehicle id="left_down_137" type="typeWS" route="left_down" depart="143" color="1,0,0"/>
    <vehicle id="right_down_138" type="typeES" route="right_down" depart="143" />
    <vehicle id="down_left_139" type="typeWS" route="down_left" depart="143" />
    <vehicle id="left_down_140" type="typeWS" route="left_down" depart="145" color="1,0,0"/>
    <vehicle id="down_right_141" type="typeWE" route="down_right" depart="146" color="1,0,0"/>
    <vehicle id="up_down_142" type="typeNS" route="up_down" depart="148" />
    <vehicle id="right_up_143" type="typeEN" route="right_up" depart="148" color="1,0,0"/>
    <vehicle id="down_up_144" type="typeWN" route="down_up" depart="150" />
    <vehicle id="up_down_145" type="typeNS" route="up_down" depart="152" />
    <vehicle id="right_down_146" type="typeES" route="right_down" depart="152" />
    <vehicle id="down_right_147" type="typeWE" route="down_right" depart="152" color="1,0,0"/>
    <vehicle id="down_right_148" type="typeWE" route="down_right" depart="153" color="1,0,0"/>
    <vehicle id="right_left_149" type="typeEW" route="right_left" depart="156" />
    <vehicle id="right_up_150" type="typeEN" route="right_up" depart="157" color="1,0,0"/>
    <vehicle id="down_left_151" type="typeWS" route="down_left" depart="158" />
    <vehicle id="down_right_152" type="typeWE" route="down_right" depart="159" color="1,0,0"/>
    <vehicle id="down_right_153" type="typeWE" route="down_right" depart="161" color="1,0,0"/>
    <vehicle id="left_right_154" type="typeWE" route="left_right" depart="162" />
    <vehicle id="left_down_155" type="typeWS" route="left_down" depart="162" color="1,0,0"/>
    <vehicle id="down_right_156" type="typeWE" route="down_right" depart="162" color="1,0,0"/>
    <vehicle id="left_up_157" type="typeWN" route="left_up" depart="164" />
    <vehicle id="up_down_158" type="typeNS" route="up_down" depart="165" />
    <vehicle id="down_up_159" type="typeWN" route="down_up" depart="165" />
    <vehicle id="left_right_160" type="typeWE" route="left_right" depart="166" />
    <vehicle id="right_left_161" type="typeEW" route="right_left" depart="166" />
    <vehicle id="left_down_162" type="typeWS" route="left_down" depart="167" color="1,0,0"/>
    <vehicle id="down_up_163" type="typeWN" route="down_up" depart="169" />
    <vehicle id="left_right_164" type="typeWE" route="left_right" depart="170" />
    <vehicle id="left_down_165" type="typeWS" route="left_down" depart="170" color="1,0,0"/>
    <vehicle id="down_up_166" type="typeWN" route="down_up" depart="170" />
    <vehicle id="down_up_167" type="typeWN" route="down_up" depart="177" />
    <vehicle id="right_left_168" type="typeEW" route="right_left" depart="178" />
    <vehicle id="left_up_169" type="typeWN" route="left_up" depart="179" />
    <vehicle id="down_right_170" type="typeWE" route="down_right" depart="180" color="1,0,0"/>
    <vehicle id="left_down_171" type="typeWS" route="left_down" depart="181" color="1,0,0"/>
    <vehicle id="left_right_172" type="typeWE" route="left_right" depart="185" />
    <vehicle id="right_left_173" type="typeEW" route="right_left" depart="185" />
    <vehicle id="down_right_174" type="typeWE" route="down_right" depart="185" color="1,0,0"/>
    <vehicle id="left_up_175" type="typeWN" route="left_up" depart="187" />
    <vehicle id="left_up_176" type="typeWN" route="left_up" depart="190" />
    <vehicle id="left_down_177" type="typeWS" route="left_down" depart="190" color="1,0,0"/>
    <vehicle id="up_right_178" type="typeNE" route="up_right" depart="191" />
    <vehicle id="down_up_179" type="typeWN" route="down_up" depart="191" />
    <vehicle id="up_down_180" type="typeNS" route="up_down" depart="192" />
    <vehicle id="right_down_181" type="typeES" route="right_down" depart="192" />
    <vehicle id="down_up_182" type="typeWN" route="down_up" depart="192" />
    <vehicle id="down_up_183" type="typeWN" route="down_up" depart="193" />
    <vehicle id="down_right_184" type="typeWE" route="down_right" depart="193" color="1,0,0"/>
    <vehicle id="down_right_185" type="typeWE" route="down_right" depart="195" color="1,0,0"/>
    <vehicle id="left_down_186" type="typeWS" route="left_down" depart="196" color="1,0,0"/>
    <vehicle id="up_right_187" type="typeNE" route="up_right" depart="198" />
    <vehicle id="down_left_188" type="typeWS" route="down_left" depart="200" />
    <vehicle id="left_right_189" type="typeWE" route="left_right" depart="201" />
    <vehicle id="right_up_190" type="typeEN" route="right_up" depart="201" color="1,0,0"/>
    <vehicle id="up_right_191" type="typeNE" route="up_right" depart="202" />
    <vehicle id="down_right_192" type="typeWE" route="down_right" depart="203" color="1,0,0"/>
    <vehicle id="up_left_193" type="typeNW" route="up_left" depart="207" color="1,0,0"/>
    <vehicle id="down_left_194" type="typeWS" route="down_left" depart="208" />
    <vehicle id="up_right_195" type="typeNE" route="up_right" depart="210" />
    <vehicle id="right_down_196" type="typeES" route="right_down" depart="210" />
    <vehicle id="down_left_197" type="typeWS" route="down_left" depart="211" />
    <vehicle id="left_up_198" type="typeWN" route="left_up" depart="212" />
    <vehicle id="down_up_199" type="typeWN" route="down_up" depart="215" />
    <vehicle id="down_up_200" type="typeWN" route="down_up" depart="217" />
    <vehicle id="left_down_201" type="typeWS" route="left_down" depart="218" color="1,0,0"/>
    <vehicle id="down_up_202" type="typeWN" route="down_up" depart="218" />
    <vehicle id="left_up_203" type="typeWN" route="left_up" depart="219" />
    <vehicle id="left_down_204" type="typeWS" route="left_down" depart="219" color="1,0,0"/>
    <vehicle id="up_down_205" type="typeNS" route="up_down" depart="220" />
    <vehicle id="down_right_206" type="typeWE" route="down_right" depart="220" color="1,0,0"/>
    <vehicle id="left_up_207" type="typeWN" route="left_up" depart="221" />
    <vehicle id="up_left_208" type="typeNW" route="up_left" depart="222" color="1,0,0"/>
    <vehicle id="left_down_209" type="typeWS" route="left_down" depart="223" color="1,0,0"/>
    <vehicle id="down_left_210" type="typeWS" route="down_left" depart="223" />
    <vehicle id="down_right_211" type="typeWE" route="down_right" depart="223" color="1,0,0"/>
    <vehicle id="up_right_212" type="typeNE" route="up_right" depart="224" />
    <vehicle id="left_down_213" type="typeWS" route="left_down" depart="226" color="1,0,0"/>
    <vehicle id="up_left_214" type="typeNW" route="up_left" depart="227" color="1,0,0"/>
    <vehicle id="down_up_215" type="typeWN" route="down_up" depart="229" />
    <vehicle id="right_down_216" type="typeES" route="right_down" depart="230" />
    <vehicle id="up_down_217" type="typeNS" route="up_down" depart="232" />
    <vehicle id="right_down_218" type="typeES" route="right_down" depart="233" />
    <vehicle id="right_left_219" type="typeEW" route="right_left" depart="234" />
    <vehicle id="right_down_220" type="typeES" route="right_down" depart="235" />
    <vehicle id="down_up_221" type="typeWN" route="down_up" depart="236" />
    <vehicle id="left_down_222" type="typeWS" route="left_down" depart="237" color="1,0,0"/>
    <vehicle id="up_left_223" type="typeNW" route="up_left" depart="237" color="1,0,0"/>
    <vehicle id="right_left_224" type="typeEW" route="right_left" depart="237" />
    <vehicle id="down_right_225" type="typeWE" route="down_right" depart="237" color="1,0,0"/>
    <vehicle id="down_up_226" type="typeWN" route="down_up" depart="238" />
    <vehicle id="down_right_227" type="typeWE" route="down_right" depart="238" color="1,0,0"/>
    <vehicle id="right_left_228" type="typeEW" route="right_left" depart="239" />
    <vehicle id="down_up_229" type="typeWN" route="down_up" depart="239" />
    <vehicle id="left_up_230" type="typeWN" route="left_up" depart="240" />
    <vehicle id="left_down_231" type="typeWS" route="left_down" depart="240" color="1,0,0"/>
    <vehicle id="right_up_232" type="typeEN" route="right_up" depart="240" color="1,0,0"/>
    <vehicle id="left_down_233" type="typeWS" route="left_down" depart="241" color="1,0,0"/>
    <vehicle id="right_left_234" type="typeEW" route="right_left" depart="242" />
    <vehicle id="right_left_235" type="typeEW" route="right_left" depart="244" />
    <vehicle id="down_up_236" type="typeWN" route="down_up" depart="244" />
    <vehicle id="down_up_237" type="typeWN" route="down_up" depart="245" />
    <vehicle id="down_left_238" type="typeWS" route="down_left" depart="247" />
    <vehicle id="right_down_239" type="typeES" route="right_down" depart="250" />
    <vehicle id="left_right_240" type="typeWE" route="left_right" depart="251" />
    <vehicle id="left_down_241" type="typeWS" route="left_down" depart="251" color="1,0,0"/>
    <vehicle id="down_up_242" type="typeWN" route="down_up" depart="255" />
    <vehicle id="up_left_243" type="typeNW" route="up_left" depart="257" color="1,0,0"/>
    <vehicle id="up_down_244" type="typeNS" route="up_down" depart="259" />
    <vehicle id="left_down_245" type="typeWS" route="left_down" depart="260" color="1,0,0"/>
    <vehicle id="right_up_246" type="typeEN" route="right_up" depart="260" color="1,0,0"/>
    <vehicle id="down_left_247" type="typeWS" route="down_left" depart="260" />
    <vehicle id="right_down_248" type="typeES" route="right_down" depart="263" />
    <vehicle id="left_down_249" type="typeWS" route="left_down" depart="264" color="1,0,0"/>
    <vehicle id="down_up_250" type="typeWN" route="down_up" depart="264" />
    <vehicle id="down_right_251" type="typeWE" route="down_right" depart="265" color="1,0,0"/>
    <vehicle id="down_up_252" type="typeWN" route="down_up" depart="266" />
    <vehicle id="left_down_253" type="typeWS" route="left_down" depart="267" color="1,0,0"/>
    <vehicle id="left_down_254" type="typeWS" route="left_down" depart="268" color="1,0,0"/>
    <vehicle id="right_left_255" type="typeEW" route="right_left" depart="268" />
    <vehicle id="left_up_256" type="typeWN" route="left_up" depart="269" />
    <vehicle id="left_down_257" type="typeWS" route="left_down" depart="269" color="1,0,0"/>
    <vehicle id="right_down_258" type="typeES" route="right_down" depart="269" />
    <vehicle id="down_right_259" type="typeWE" route="down_right" depart="269" color="1,0,0"/>
    <vehicle id="right_left_260" type="typeEW" route="right_left" depart="270" />
    <vehicle id="up_right_261" type="typeNE" route="up_right" depart="273" />
    <vehicle id="down_up_262" type="typeWN" route="down_up" depart="274" />
    <vehicle id="up_left_263" type="typeNW" route="up_left" depart="276" color="1,0,0"/>
    <vehicle id="right_left_264" type="typeEW" route="right_left" depart="276" />
    <vehicle id="up_left_265" type="typeNW" route="up_left" depart="278" color="1,0,0"/>
    <vehicle id="right_left_266" type="typeEW" route="right_left" depart="278" />
    <vehicle id="right_up_267" type="typeEN" route="right_up" depart="278" color="1,0,0"/>
    <vehicle id="left_down_268" type="typeWS" route="left_down" depart="279" color="1,0,0"/>
    <vehicle id="up_left_269" type="typeNW" route="up_left" depart="281" color="1,0,0"/>
    <vehicle id="right_left_270" type="typeEW" route="right_left" depart="281" />
    <vehicle id="up_down_271" type="typeNS" route="up_down" depart="282" />
    <vehicle id="down_right_272" type="typeWE" route="down_right" depart="284" color="1,0,0"/>
    <vehicle id="right_up_273" type="typeEN" route="right_up" depart="285" color="1,0,0"/>
    <vehicle id="down_left_274" type="typeWS" route="down_left" depart="285" />
    <vehicle id="down_right_275" type="typeWE" route="down_right" depart="285" color="1,0,0"/>
    <vehicle id="left_down_276" type="typeWS" route="left_down" depart="286" color="1,0,0"/>
    <vehicle id="up_left_277" type="typeNW" route="up_left" depart="286" color="1,0,0"/>
    <vehicle id="left_down_278" type="typeWS" route="left_down" depart="288" color="1,0,0"/>
    <vehicle id="down_up_279" type="typeWN" route="down_up" depart="288" />
    <vehicle id="left_down_280" type="typeWS" route="left_down" depart="290" color="1,0,0"/>
    <vehicle id="right_left_281" type="typeEW" route="right_left" depart="290" />
    <vehicle id="down_right_282" type="typeWE" route="down_right" depart="291" color="1,0,0"/>
    <vehicle id="down_right_283" type="typeWE" route="down_right" depart="293" color="1,0,0"/>
    <vehicle id="up_left_284" type="typeNW" route="up_left" depart="294" color="1,0,0"/>
    <vehicle id="left_up_285" type="typeWN" route="left_up" depart="296" />
    <vehicle id="left_down_286" type="typeWS" route="left_down" depart="297" color="1,0,0"/>
    <vehicle id="left_right_287" type="typeWE" route="left_right" depart="300" />
    <vehicle id="up_right_288" type="typeNE" route="up_right" depart="300" />
    <vehicle id="up_left_289" type="typeNW" route="up_left" depart="300" color="1,0,0"/>
    <vehicle id="right_left_290" type="typeEW" route="right_left" depart="301" />
    <vehicle id="left_down_291" type="typeWS" route="left_down" depart="303" color="1,0,0"/>
    <vehicle id="left_up_292" type="typeWN" route="left_up" depart="305" />
    <vehicle id="left_down_293" type="typeWS" route="left_down" depart="305" color="1,0,0"/>
    <vehicle id="down_up_294" type="typeWN" route="down_up" depart="305" />
    <vehicle id="up_left_295" type="typeNW" route="up_left" depart="310" color="1,0,0"/>
    <vehicle id="down_up_296" type="typeWN" route="down_up" depart="310" />
    <vehicle id="right_left_297" type="typeEW" route="right_left" depart="311" />
    <vehicle id="left_right_298" type="typeWE" route="left_right" depart="313" />
    <vehicle id="up_left_299" type="typeNW" route="up_left" depart="313" color="1,0,0"/>
    <vehicle id="right_left_300" type="typeEW" route="right_left" depart="314" />
    <vehicle id="down_left_301" type="typeWS" route="down_left" depart="314" />
    <vehicle id="left_up_302" type="typeWN" route="left_up" depart="317" />
    <vehicle id="left_down_303" type="typeWS" route="left_down" depart="318" color="1,0,0"/>
    <vehicle id="up_down_304" type="typeNS" route="up_down" depart="318" />
    <vehicle id="up_left_305" type="typeNW" route="up_left" depart="318" color="1,0,0"/>
    <vehicle id="left_up_306" type="typeWN" route="left_up" depart="320" />
    <vehicle id="down_left_307" type="typeWS" route="down_left" depart="321" />
    <vehicle id="left_down_308" type="typeWS" route="left_down" depart="322" color="1,0,0"/>
    <vehicle id="left_up_309" type="typeWN" route="left_up" depart="323" />
    <vehicle id="right_left_310" type="typeEW" route="right_left" depart="323" />
    <vehicle id="down_up_311" type="typeWN" route="down_up" depart="323" />
    <vehicle id="left_down_312" type="typeWS" route="left_down" depart="324" color="1,0,0"/>
    <vehicle id="down_up_313" type="typeWN" route="down_up" depart="326" />
    <vehicle id="down_right_314" type="typeWE" route="down_right" depart="331" color="1,0,0"/>
    <vehicle id="down_up_315" type="typeWN" route="down_up" depart="332" />
    <vehicle id="right_left_316" type="typeEW" route="right_left" depart="334" />
    <vehicle id="down_right_317" type="typeWE" route="down_right" depart="334" color="1,0,0"/>
    <vehicle id="left_down_318" type="typeWS" route="left_down" depart="335" color="1,0,0"/>
    <vehicle id="up_left_319" type="typeNW" route="up_left" depart="336" color="1,0,0"/>
    <vehicle id="left_down_320" type="typeWS" route="left_down" depart="338" color="1,0,0"/>
    <vehicle id="down_up_321" type="typeWN" route="down_up" depart="338" />
    <vehicle id="down_up_322" type="typeWN" route="down_up" depart="339" />
    <vehicle id="left_right_323" type="typeWE" route="left_right" depart="341" />
    <vehicle id="up_left_324" type="typeNW" route="up_left" depart="341" color="1,0,0"/>
    <vehicle id="down_up_325" type="typeWN" route="down_up" depart="341" />
    <vehicle id="left_up_326" type="typeWN" route="left_up" depart="342" />
    <vehicle id="down_up_327" type="typeWN" route="down_up" depart="343" />
    <vehicle id="left_down_328" type="typeWS" route="left_down" depart="344" color="1,0,0"/>
    <vehicle id="down_left_329" type="typeWS" route="down_left" depart="345" />
    <vehicle id="down_right_330" type="typeWE" route="down_right" depart="347" color="1,0,0"/>