<?xml version="1.0" encoding="UTF-8"?>

<!-- generated on 2022-08-18 18:25:57 by Eclipse SUMO GUI Version 1.14.1
-->

<configuration xmlns:xsi="http://www.w3.org/2001/XMLSchema-instance" xsi:noNamespaceSchemaLocation="http://sumo.dlr.de/xsd/sumoConfiguration.xsd">

    <input>
        <net-file value="small-map-double-lane.net.xml"/>
        <route-files value="small-map-double-lane.rou.xml"/>
    </input>

</configuration>
