<?xml version="1.0" encoding="UTF-8"?>

<!-- generated on 2022-08-22 16:33:44 by Eclipse SUMO netedit Version 1.14.1
<configuration xmlns:xsi="http://www.w3.org/2001/XMLSchema-instance" xsi:noNamespaceSchemaLocation="http://sumo.dlr.de/xsd/netconvertConfiguration.xsd">

    <output>
        <output-file value="/home/bishal/Programming/reinforcement-learning-env-cli/sumo-files/small-map-triple-lane.net.xml"/>
    </output>

    <processing>
        <offset.disable-normalization value="true"/>
        <lefthand value="true"/>
    </processing>

    <junctions>
        <no-turnarounds value="true"/>
    </junctions>

</configuration>
-->

<net version="1.9" junctionCornerDetail="5" lefthand="true" limitTurnSpeed="5.50" xmlns:xsi="http://www.w3.org/2001/XMLSchema-instance" xsi:noNamespaceSchemaLocation="http://sumo.dlr.de/xsd/net_file.xsd">

    <location netOffset="0.00,-0.00" convBoundary="1000.00,-1700.00,3400.00,900.00" origBoundary="10000000000.00,10000000000.00,-10000000000.00,-10000000000.00" projParameter="!"/>

    <edge id=":J1_0" function="internal">
        <lane id=":J1_0_0" index="0" speed="6.51" length="9.03" shape="2392.00,-213.60 2391.65,-211.15 2390.60,-209.40 2388.85,-208.35 2386.40,-208.00"/>
    </edge>
    <edge id=":J1_1" function="internal">
        <lane id=":J1_1_0" index="0" speed="13.89" length="27.20" shape="2392.00,-213.60 2392.00,-186.40"/>
        <lane id=":J1_1_1" index="1" speed="13.89" length="27.20" shape="2395.20,-213.60 2395.20,-186.40"/>
        <lane id=":J1_1_2" index="2" speed="13.89" length="27.20" shape="2398.40,-213.60 2398.40,-186.40"/>
    </edge>
    <edge id=":J1_4" function="internal">
        <lane id=":J1_4_0" index="0" speed="10.36" length="5.01" shape="2398.40,-213.60 2399.11,-208.64"/>
    </edge>
    <edge id=":J1_20" function="internal">
        <lane id=":J1_20_0" index="0" speed="10.36" length="19.50" shape="2399.11,-208.64 2399.35,-206.95 2402.20,-202.20 2406.95,-199.35 2413.60,-198.40"/>
    </edge>
    <edge id=":J1_5" function="internal">
        <lane id=":J1_5_0" index="0" speed="6.51" length="9.03" shape="2413.60,-208.00 2411.15,-208.35 2409.40,-209.40 2408.35,-211.15 2408.00,-213.60"/>
    </edge>
    <edge id=":J1_6" function="internal">
        <lane id=":J1_6_0" index="0" speed="13.89" length="27.20" shape="2413.60,-208.00 2386.40,-208.00"/>
        <lane id=":J1_6_1" index="1" speed="13.89" length="27.20" shape="2413.60,-204.80 2386.40,-204.80"/>
        <lane id=":J1_6_2" index="2" speed="13.89" length="27.20" shape="2413.60,-201.60 2386.40,-201.60"/>
    </edge>
    <edge id=":J1_9" function="internal">
        <lane id=":J1_9_0" index="0" speed="10.36" length="5.01" shape="2413.60,-201.60 2408.64,-200.89"/>
    </edge>
    <edge id=":J1_21" function="internal">
        <lane id=":J1_21_0" index="0" speed="10.36" length="19.50" shape="2408.64,-200.89 2406.95,-200.65 2402.20,-197.80 2399.35,-193.05 2398.40,-186.40"/>
    </edge>
    <edge id=":J1_10" function="internal">
        <lane id=":J1_10_0" index="0" speed="6.51" length="9.03" shape="2408.00,-186.40 2408.35,-188.85 2409.40,-190.60 2411.15,-191.65 2413.60,-192.00"/>
    </edge>
    <edge id=":J1_11" function="internal">
        <lane id=":J1_11_0" index="0" speed="13.89" length="27.20" shape="2408.00,-186.40 2408.00,-213.60"/>
        <lane id=":J1_11_1" index="1" speed="13.89" length="27.20" shape="2404.80,-186.40 2404.80,-213.60"/>
        <lane id=":J1_11_2" index="2" speed="13.89" length="27.20" shape="2401.60,-186.40 2401.60,-213.60"/>
    </edge>
    <edge id=":J1_14" function="internal">
        <lane id=":J1_14_0" index="0" speed="10.36" length="5.01" shape="2401.60,-186.40 2400.89,-191.36"/>
    </edge>
    <edge id=":J1_22" function="internal">
        <lane id=":J1_22_0" index="0" speed="10.36" length="19.50" shape="2400.89,-191.36 2400.65,-193.05 2397.80,-197.80 2393.05,-200.65 2386.40,-201.60"/>
    </edge>
    <edge id=":J1_15" function="internal">
        <lane id=":J1_15_0" index="0" speed="6.51" length="9.03" shape="2386.40,-192.00 2388.85,-191.65 2390.60,-190.60 2391.65,-188.85 2392.00,-186.40"/>
    </edge>
    <edge id=":J1_16" function="internal">
        <lane id=":J1_16_0" index="0" speed="13.89" length="27.20" shape="2386.40,-192.00 2413.60,-192.00"/>
        <lane id=":J1_16_1" index="1" speed="13.89" length="27.20" shape="2386.40,-195.20 2413.60,-195.20"/>
        <lane id=":J1_16_2" index="2" speed="13.89" length="27.20" shape="2386.40,-198.40 2413.60,-198.40"/>
    </edge>
    <edge id=":J1_19" function="internal">
        <lane id=":J1_19_0" index="0" speed="10.36" length="5.01" shape="2386.40,-198.40 2391.36,-199.11"/>
    </edge>
    <edge id=":J1_23" function="internal">
        <lane id=":J1_23_0" index="0" speed="10.36" length="19.50" shape="2391.36,-199.11 2393.05,-199.35 2397.80,-202.20 2400.65,-206.95 2401.60,-213.60"/>
    </edge>

    <edge id="-E0" from="J1" to="J0" priority="-1">
        <lane id="-E0_0" index="0" speed="13.89" length="1386.40" shape="2386.40,-208.00 1000.00,-208.00"/>
        <lane id="-E0_1" index="1" speed="13.89" length="1386.40" shape="2386.40,-204.80 1000.00,-204.80"/>
        <lane id="-E0_2" index="2" speed="13.89" length="1386.40" shape="2386.40,-201.60 1000.00,-201.60"/>
    </edge>
    <edge id="-E1" from="J2" to="J1" priority="-1">
        <lane id="-E1_0" index="0" speed="13.89" length="1086.40" shape="2408.00,900.00 2408.00,-186.40"/>
        <lane id="-E1_1" index="1" speed="13.89" length="1086.40" shape="2404.80,900.00 2404.80,-186.40"/>
        <lane id="-E1_2" index="2" speed="13.89" length="1086.40" shape="2401.60,900.00 2401.60,-186.40"/>
    </edge>
    <edge id="-E2" from="J3" to="J1" priority="-1">
        <lane id="-E2_0" index="0" speed="13.89" length="986.40" shape="3400.00,-208.00 2413.60,-208.00"/>
        <lane id="-E2_1" index="1" speed="13.89" length="986.40" shape="3400.00,-204.80 2413.60,-204.80"/>
        <lane id="-E2_2" index="2" speed="13.89" length="986.40" shape="3400.00,-201.60 2413.60,-201.60"/>
    </edge>
    <edge id="-E3" from="J4" to="J1" priority="-1">
        <lane id="-E3_0" index="0" speed="13.89" length="1486.40" shape="2392.00,-1700.00 2392.00,-213.60"/>
        <lane id="-E3_1" index="1" speed="13.89" length="1486.40" shape="2395.20,-1700.00 2395.20,-213.60"/>
        <lane id="-E3_2" index="2" speed="13.89" length="1486.40" shape="2398.40,-1700.00 2398.40,-213.60"/>
    </edge>
    <edge id="E0" from="J0" to="J1" priority="-1">
        <lane id="E0_0" index="0" speed="13.89" length="1386.40" shape="1000.00,-192.00 2386.40,-192.00"/>
        <lane id="E0_1" index="1" speed="13.89" length="1386.40" shape="1000.00,-195.20 2386.40,-195.20"/>
        <lane id="E0_2" index="2" speed="13.89" length="1386.40" shape="1000.00,-198.40 2386.40,-198.40"/>
    </edge>
    <edge id="E1" from="J1" to="J2" priority="-1">
        <lane id="E1_0" index="0" speed="13.89" length="1086.40" shape="2392.00,-186.40 2392.00,900.00"/>
        <lane id="E1_1" index="1" speed="13.89" length="1086.40" shape="2395.20,-186.40 2395.20,900.00"/>
        <lane id="E1_2" index="2" speed="13.89" length="1086.40" shape="2398.40,-186.40 2398.40,900.00"/>
    </edge>
    <edge id="E2" from="J1" to="J3" priority="-1">
        <lane id="E2_0" index="0" speed="13.89" length="986.40" shape="2413.60,-192.00 3400.00,-192.00"/>
        <lane id="E2_1" index="1" speed="13.89" length="986.40" shape="2413.60,-195.20 3400.00,-195.20"/>
        <lane id="E2_2" index="2" speed="13.89" length="986.40" shape="2413.60,-198.40 3400.00,-198.40"/>
    </edge>
    <edge id="E3" from="J1" to="J4" priority="-1">
        <lane id="E3_0" index="0" speed="13.89" length="1486.40" shape="2408.00,-213.60 2408.00,-1700.00"/>
        <lane id="E3_1" index="1" speed="13.89" length="1486.40" shape="2404.80,-213.60 2404.80,-1700.00"/>
        <lane id="E3_2" index="2" speed="13.89" length="1486.40" shape="2401.60,-213.60 2401.60,-1700.00"/>
    </edge>

    <tlLogic id="J1" type="static" programID="0" offset="0">
        <phase duration="42" state="GGGGgrrrrrGGGGgrrrrr"/>
        <phase duration="3"  state="yyyyyrrrrryyyyyrrrrr"/>
        <phase duration="42" state="rrrrrGGGGgrrrrrGGGGg"/>
        <phase duration="3"  state="rrrrryyyyyrrrrryyyyy"/>
    </tlLogic>

    <junction id="J0" type="dead_end" x="1000.00" y="-200.00" incLanes="-E0_0 -E0_1 -E0_2" intLanes="" shape="1000.00,-200.00 1000.00,-209.60 1000.00,-200.00"/>
    <junction id="J1" type="traffic_light" x="2400.00" y="-200.00" incLanes="-E3_0 -E3_1 -E3_2 -E2_0 -E2_1 -E2_2 -E1_0 -E1_1 -E1_2 E0_0 E0_1 E0_2" intLanes=":J1_0_0 :J1_1_0 :J1_1_1 :J1_1_2 :J1_20_0 :J1_5_0 :J1_6_0 :J1_6_1 :J1_6_2 :J1_21_0 :J1_10_0 :J1_11_0 :J1_11_1 :J1_11_2 :J1_22_0 :J1_15_0 :J1_16_0 :J1_16_1 :J1_16_2 :J1_23_0" shape="2390.40,-213.60 2409.60,-213.60 2410.04,-211.38 2410.60,-210.60 2411.38,-210.04 2412.38,-209.71 2413.60,-209.60 2413.60,-190.40 2411.38,-189.96 2410.60,-189.40 2410.04,-188.62 2409.71,-187.62 2409.60,-186.40 2390.40,-186.40 2389.96,-188.62 2389.40,-189.40 2388.62,-189.96 2387.62,-190.29 2386.40,-190.40 2386.40,-209.60 2388.62,-210.04 2389.40,-210.60 2389.96,-211.38 2390.29,-212.38">
        <request index="0"  response="00000000000000000000" foes="00000000000111000000" cont="0"/>
        <request index="1"  response="10000000001000000000" foes="11111100001111000000" cont="0"/>
        <request index="2"  response="10000000001000000000" foes="11111100001111000000" cont="0"/>
        <request index="3"  response="10000000001000000000" foes="11111100001111000000" cont="0"/>
        <request index="4"  response="10000011101000000000" foes="11110011101111000000" cont="1"/>
        <request index="5"  response="00000011100000000000" foes="00000011100000000000" cont="0"/>
        <request index="6"  response="00000111100000011111" foes="10000111100000011111" cont="0"/>
        <request index="7"  response="00000111100000011111" foes="10000111100000011111" cont="0"/>
        <request index="8"  response="00000111100000011111" foes="10000111100000011111" cont="0"/>
        <request index="9"  response="01110111100000011110" foes="01110111100000011110" cont="1"/>
        <request index="10" response="00000000000000000000" foes="01110000000000000000" cont="0"/>
        <request index="11" response="10000000001000000000" foes="11110000001111110000" cont="0"/>
        <request index="12" response="10000000001000000000" foes="11110000001111110000" cont="0"/>
        <request index="13" response="10000000001000000000" foes="11110000001111110000" cont="0"/>
        <request index="14" response="10000000001000001110" foes="11110000001111001110" cont="1"/>
        <request index="15" response="00000000000000001110" foes="00000000000000001110" cont="0"/>
        <request index="16" response="00000111110000011110" foes="00000111111000011110" cont="0"/>
        <request index="17" response="00000111110000011110" foes="00000111111000011110" cont="0"/>
        <request index="18" response="00000111110000011110" foes="00000111111000011110" cont="0"/>
        <request index="19" response="00000111100111011110" foes="00000111100111011110" cont="1"/>
    </junction>
    <junction id="J2" type="dead_end" x="2400.00" y="900.00" incLanes="E1_0 E1_1 E1_2" intLanes="" shape="2400.00,900.00 2390.40,900.00 2400.00,900.00"/>
    <junction id="J3" type="dead_end" x="3400.00" y="-200.00" incLanes="E2_0 E2_1 E2_2" intLanes="" shape="3400.00,-200.00 3400.00,-190.40 3400.00,-200.00"/>
    <junction id="J4" type="dead_end" x="2400.00" y="-1700.00" incLanes="E3_0 E3_1 E3_2" intLanes="" shape="2400.00,-1700.00 2409.60,-1700.00 2400.00,-1700.00"/>

    <junction id=":J1_20_0" type="internal" x="2399.11" y="-208.64" incLanes=":J1_4_0 -E1_0 -E1_1 -E1_2" intLanes=":J1_6_0 :J1_6_1 :J1_6_2 :J1_9_0 :J1_10_0 :J1_11_0 :J1_11_1 :J1_11_2 :J1_16_0 :J1_16_1 :J1_16_2 :J1_19_0"/>
    <junction id=":J1_21_0" type="internal" x="2408.64" y="-200.89" incLanes=":J1_9_0 E0_0 E0_1 E0_2" intLanes=":J1_1_0 :J1_1_1 :J1_1_2 :J1_4_0 :J1_11_0 :J1_11_1 :J1_11_2 :J1_14_0 :J1_15_0 :J1_16_0 :J1_16_1 :J1_16_2"/>
    <junction id=":J1_22_0" type="internal" x="2400.89" y="-191.36" incLanes=":J1_14_0 -E3_0 -E3_1 -E3_2" intLanes=":J1_0_0 :J1_1_0 :J1_1_1 :J1_1_2 :J1_6_0 :J1_6_1 :J1_6_2 :J1_9_0 :J1_16_0 :J1_16_1 :J1_16_2 :J1_19_0"/>
    <junction id=":J1_23_0" type="internal" x="2391.36" y="-199.11" incLanes=":J1_19_0 -E2_0 -E2_1 -E2_2" intLanes=":J1_1_0 :J1_1_1 :J1_1_2 :J1_4_0 :J1_5_0 :J1_6_0 :J1_6_1 :J1_6_2 :J1_11_0 :J1_11_1 :J1_11_2 :J1_14_0"/>

    <connection from="-E1" to="E2" fromLane="0" toLane="0" via=":J1_10_0" tl="J1" linkIndex="10" dir="l" state="O"/>
    <connection from="-E1" to="E3" fromLane="0" toLane="0" via=":J1_11_0" tl="J1" linkIndex="11" dir="s" state="O"/>
    <connection from="-E1" to="E3" fromLane="1" toLane="1" via=":J1_11_1" tl="J1" linkIndex="12" dir="s" state="O"/>
    <connection from="-E1" to="E3" fromLane="2" toLane="2" via=":J1_11_2" tl="J1" linkIndex="13" dir="s" state="O"/>
    <connection from="-E1" to="-E0" fromLane="2" toLane="2" via=":J1_14_0" tl="J1" linkIndex="14" dir="r" state="o"/>
    <connection from="-E2" to="E3" fromLane="0" toLane="0" via=":J1_5_0" tl="J1" linkIndex="5" dir="l" state="o"/>
    <connection from="-E2" to="-E0" fromLane="0" toLane="0" via=":J1_6_0" tl="J1" linkIndex="6" dir="s" state="o"/>
    <connection from="-E2" to="-E0" fromLane="1" toLane="1" via=":J1_6_1" tl="J1" linkIndex="7" dir="s" state="o"/>
    <connection from="-E2" to="-E0" fromLane="2" toLane="2" via=":J1_6_2" tl="J1" linkIndex="8" dir="s" state="o"/>
    <connection from="-E2" to="E1" fromLane="2" toLane="2" via=":J1_9_0" tl="J1" linkIndex="9" dir="r" state="o"/>
    <connection from="-E3" to="-E0" fromLane="0" toLane="0" via=":J1_0_0" tl="J1" linkIndex="0" dir="l" state="O"/>
    <connection from="-E3" to="E1" fromLane="0" toLane="0" via=":J1_1_0" tl="J1" linkIndex="1" dir="s" state="O"/>
    <connection from="-E3" to="E1" fromLane="1" toLane="1" via=":J1_1_1" tl="J1" linkIndex="2" dir="s" state="O"/>
    <connection from="-E3" to="E1" fromLane="2" toLane="2" via=":J1_1_2" tl="J1" linkIndex="3" dir="s" state="O"/>
    <connection from="-E3" to="E2" fromLane="2" toLane="2" via=":J1_4_0" tl="J1" linkIndex="4" dir="r" state="o"/>
    <connection from="E0" to="E1" fromLane="0" toLane="0" via=":J1_15_0" tl="J1" linkIndex="15" dir="l" state="o"/>
    <connection from="E0" to="E2" fromLane="0" toLane="0" via=":J1_16_0" tl="J1" linkIndex="16" dir="s" state="o"/>
    <connection from="E0" to="E2" fromLane="1" toLane="1" via=":J1_16_1" tl="J1" linkIndex="17" dir="s" state="o"/>
    <connection from="E0" to="E2" fromLane="2" toLane="2" via=":J1_16_2" tl="J1" linkIndex="18" dir="s" state="o"/>
    <connection from="E0" to="E3" fromLane="2" toLane="2" via=":J1_19_0" tl="J1" linkIndex="19" dir="r" state="o"/>

    <connection from=":J1_0" to="-E0" fromLane="0" toLane="0" dir="l" state="M"/>
    <connection from=":J1_1" to="E1" fromLane="0" toLane="0" dir="s" state="M"/>
    <connection from=":J1_1" to="E1" fromLane="1" toLane="1" dir="s" state="M"/>
    <connection from=":J1_1" to="E1" fromLane="2" toLane="2" dir="s" state="M"/>
    <connection from=":J1_4" to="E2" fromLane="0" toLane="2" via=":J1_20_0" dir="r" state="m"/>
    <connection from=":J1_20" to="E2" fromLane="0" toLane="2" dir="r" state="M"/>
    <connection from=":J1_5" to="E3" fromLane="0" toLane="0" dir="l" state="M"/>
    <connection from=":J1_6" to="-E0" fromLane="0" toLane="0" dir="s" state="M"/>
    <connection from=":J1_6" to="-E0" fromLane="1" toLane="1" dir="s" state="M"/>
    <connection from=":J1_6" to="-E0" fromLane="2" toLane="2" dir="s" state="M"/>
    <connection from=":J1_9" to="E1" fromLane="0" toLane="2" via=":J1_21_0" dir="r" state="m"/>
    <connection from=":J1_21" to="E1" fromLane="0" toLane="2" dir="r" state="M"/>
    <connection from=":J1_10" to="E2" fromLane="0" toLane="0" dir="l" state="M"/>
    <connection from=":J1_11" to="E3" fromLane="0" toLane="0" dir="s" state="M"/>
    <connection from=":J1_11" to="E3" fromLane="1" toLane="1" dir="s" state="M"/>
    <connection from=":J1_11" to="E3" fromLane="2" toLane="2" dir="s" state="M"/>
    <connection from=":J1_14" to="-E0" fromLane="0" toLane="2" via=":J1_22_0" dir="r" state="m"/>
    <connection from=":J1_22" to="-E0" fromLane="0" toLane="2" dir="r" state="M"/>
    <connection from=":J1_15" to="E1" fromLane="0" toLane="0" dir="l" state="M"/>
    <connection from=":J1_16" to="E2" fromLane="0" toLane="0" dir="s" state="M"/>
    <connection from=":J1_16" to="E2" fromLane="1" toLane="1" dir="s" state="M"/>
    <connection from=":J1_16" to="E2" fromLane="2" toLane="2" dir="s" state="M"/>
    <connection from=":J1_19" to="E3" fromLane="0" toLane="2" via=":J1_23_0" dir="r" state="m"/>
    <connection from=":J1_23" to="E3" fromLane="0" toLane="2" dir="r" state="M"/>

</net>
