<?xml version="1.0" encoding="UTF-8"?>

<!-- generated on 2022-08-18 17:40:59 by Eclipse SUMO netedit Version 1.14.1
<configuration xmlns:xsi="http://www.w3.org/2001/XMLSchema-instance" xsi:noNamespaceSchemaLocation="http://sumo.dlr.de/xsd/netconvertConfiguration.xsd">

    <output>
        <output-file value="/home/bishal/Programming/the-small-one/files/small-map-double-lane.net.xml"/>
    </output>

    <processing>
        <offset.disable-normalization value="true"/>
        <lefthand value="true"/>
    </processing>

    <junctions>
        <no-turnarounds value="true"/>
    </junctions>

</configuration>
-->

<net version="1.9" junctionCornerDetail="5" lefthand="true" limitTurnSpeed="5.50" xmlns:xsi="http://www.w3.org/2001/XMLSchema-instance" xsi:noNamespaceSchemaLocation="http://sumo.dlr.de/xsd/net_file.xsd">

    <location netOffset="0.00,-0.00" convBoundary="-1100.00,-100.00,-900.00,100.00" origBoundary="10000000000.00,10000000000.00,-10000000000.00,-10000000000.00" projParameter="!"/>

    <edge id=":J11_0" function="internal">
        <lane id=":J11_0_0" index="0" speed="6.51" length="9.03" shape="-1004.80,-10.40 -1005.15,-7.95 -1006.20,-6.20 -1007.95,-5.15 -1010.40,-4.80"/>
    </edge>
    <edge id=":J11_1" function="internal">
        <lane id=":J11_1_0" index="0" speed="13.89" length="20.80" shape="-1004.80,-10.40 -1004.80,10.40"/>
        <lane id=":J11_1_1" index="1" speed="13.89" length="20.80" shape="-1001.60,-10.40 -1001.60,10.40"/>
    </edge>
    <edge id=":J11_3" function="internal">
        <lane id=":J11_3_0" index="0" speed="9.26" length="5.01" shape="-1001.60,-10.40 -1000.89,-5.44"/>
    </edge>
    <edge id=":J11_16" function="internal">
        <lane id=":J11_16_0" index="0" speed="9.26" length="14.34" shape="-1000.89,-5.44 -1000.85,-5.15 -998.60,-1.40 -994.85,0.85 -989.60,1.60"/>
    </edge>
    <edge id=":J11_4" function="internal">
        <lane id=":J11_4_0" index="0" speed="6.51" length="9.03" shape="-989.60,-4.80 -992.05,-5.15 -993.80,-6.20 -994.85,-7.95 -995.20,-10.40"/>
    </edge>
    <edge id=":J11_5" function="internal">
        <lane id=":J11_5_0" index="0" speed="13.89" length="20.80" shape="-989.60,-4.80 -1010.40,-4.80"/>
        <lane id=":J11_5_1" index="1" speed="13.89" length="20.80" shape="-989.60,-1.60 -1010.40,-1.60"/>
    </edge>
    <edge id=":J11_7" function="internal">
        <lane id=":J11_7_0" index="0" speed="9.26" length="5.01" shape="-989.60,-1.60 -994.56,-0.89"/>
    </edge>
    <edge id=":J11_17" function="internal">
        <lane id=":J11_17_0" index="0" speed="9.26" length="14.34" shape="-994.56,-0.89 -994.85,-0.85 -998.60,1.40 -1000.85,5.15 -1001.60,10.40"/>
    </edge>
    <edge id=":J11_8" function="internal">
        <lane id=":J11_8_0" index="0" speed="6.51" length="9.03" shape="-995.20,10.40 -994.85,7.95 -993.80,6.20 -992.05,5.15 -989.60,4.80"/>
    </edge>
    <edge id=":J11_9" function="internal">
        <lane id=":J11_9_0" index="0" speed="13.89" length="20.80" shape="-995.20,10.40 -995.20,-10.40"/>
        <lane id=":J11_9_1" index="1" speed="13.89" length="20.80" shape="-998.40,10.40 -998.40,-10.40"/>
    </edge>
    <edge id=":J11_11" function="internal">
        <lane id=":J11_11_0" index="0" speed="9.26" length="5.01" shape="-998.40,10.40 -999.11,5.44"/>
    </edge>
    <edge id=":J11_18" function="internal">
        <lane id=":J11_18_0" index="0" speed="9.26" length="14.34" shape="-999.11,5.44 -999.15,5.15 -1001.40,1.40 -1005.15,-0.85 -1010.40,-1.60"/>
    </edge>
    <edge id=":J11_12" function="internal">
        <lane id=":J11_12_0" index="0" speed="6.51" length="9.03" shape="-1010.40,4.80 -1007.95,5.15 -1006.20,6.20 -1005.15,7.95 -1004.80,10.40"/>
    </edge>
    <edge id=":J11_13" function="internal">
        <lane id=":J11_13_0" index="0" speed="13.89" length="20.80" shape="-1010.40,4.80 -989.60,4.80"/>
        <lane id=":J11_13_1" index="1" speed="13.89" length="20.80" shape="-1010.40,1.60 -989.60,1.60"/>
    </edge>
    <edge id=":J11_15" function="internal">
        <lane id=":J11_15_0" index="0" speed="9.26" length="5.01" shape="-1010.40,1.60 -1005.44,0.89"/>
    </edge>
    <edge id=":J11_19" function="internal">
        <lane id=":J11_19_0" index="0" speed="9.26" length="14.34" shape="-1005.44,0.89 -1005.15,0.85 -1001.40,-1.40 -999.15,-5.15 -998.40,-10.40"/>
    </edge>

    <edge id="-E10" from="J14" to="J11" priority="-1">
        <lane id="-E10_0" index="0" speed="13.89" length="89.60" shape="-900.00,-4.80 -989.60,-4.80"/>
        <lane id="-E10_1" index="1" speed="13.89" length="89.60" shape="-900.00,-1.60 -989.60,-1.60"/>
    </edge>
    <edge id="-E11" from="J15" to="J11" priority="-1">
        <lane id="-E11_0" index="0" speed="13.89" length="89.60" shape="-1004.80,-100.00 -1004.80,-10.40"/>
        <lane id="-E11_1" index="1" speed="13.89" length="89.60" shape="-1001.60,-100.00 -1001.60,-10.40"/>
    </edge>
    <edge id="-E8" from="J12" to="J11" priority="-1">
        <lane id="-E8_0" index="0" speed="13.89" length="89.60" shape="-995.20,100.00 -995.20,10.40"/>
        <lane id="-E8_1" index="1" speed="13.89" length="89.60" shape="-998.40,100.00 -998.40,10.40"/>
    </edge>
    <edge id="-E9" from="J11" to="J13" priority="-1">
        <lane id="-E9_0" index="0" speed="13.89" length="89.60" shape="-1010.40,-4.80 -1100.00,-4.80"/>
        <lane id="-E9_1" index="1" speed="13.89" length="89.60" shape="-1010.40,-1.60 -1100.00,-1.60"/>
    </edge>
    <edge id="E10" from="J11" to="J14" priority="-1">
        <lane id="E10_0" index="0" speed="13.89" length="89.60" shape="-989.60,4.80 -900.00,4.80"/>
        <lane id="E10_1" index="1" speed="13.89" length="89.60" shape="-989.60,1.60 -900.00,1.60"/>
    </edge>
    <edge id="E11" from="J11" to="J15" priority="-1">
        <lane id="E11_0" index="0" speed="13.89" length="89.60" shape="-995.20,-10.40 -995.20,-100.00"/>
        <lane id="E11_1" index="1" speed="13.89" length="89.60" shape="-998.40,-10.40 -998.40,-100.00"/>
    </edge>
    <edge id="E8" from="J11" to="J12" priority="-1">
        <lane id="E8_0" index="0" speed="13.89" length="89.60" shape="-1004.80,10.40 -1004.80,100.00"/>
        <lane id="E8_1" index="1" speed="13.89" length="89.60" shape="-1001.60,10.40 -1001.60,100.00"/>
    </edge>
    <edge id="E9" from="J13" to="J11" priority="-1">
        <lane id="E9_0" index="0" speed="13.89" length="89.60" shape="-1100.00,4.80 -1010.40,4.80"/>
        <lane id="E9_1" index="1" speed="13.89" length="89.60" shape="-1100.00,1.60 -1010.40,1.60"/>
    </edge>

    <tlLogic id="J11" type="static" programID="0" offset="0">
        <phase duration="30" state="rrrrGGgrrrrrGGgr"/>
        <phase duration="5" state="rrrryyyrrrrryyyr"/>
        <phase duration="30"  state="GGgrrrrrGGGrrrrr"/>
        <phase duration="5"  state="yyyrrrrryyyrrrrr"/>
        <phase duration="30" state="rrrrGrrGrrrrGrrG"/>
        <phase duration="5" state="rrrryrryrrrryrry"/>
        <phase duration="30"  state="GrrGrrrrGrrGrrrr"/>
        <phase duration="5"  state="yrryrrrryrryrrrr"/>
    </tlLogic>

    <junction id="J11" type="traffic_light" x="-1000.00" y="0.00" incLanes="-E11_0 -E11_1 -E10_0 -E10_1 -E8_0 -E8_1 E9_0 E9_1" intLanes=":J11_0_0 :J11_1_0 :J11_1_1 :J11_16_0 :J11_4_0 :J11_5_0 :J11_5_1 :J11_17_0 :J11_8_0 :J11_9_0 :J11_9_1 :J11_18_0 :J11_12_0 :J11_13_0 :J11_13_1 :J11_19_0" shape="-1006.40,-10.40 -993.60,-10.40 -993.16,-8.18 -992.60,-7.40 -991.82,-6.84 -990.82,-6.51 -989.60,-6.40 -989.60,6.40 -991.82,6.84 -992.60,7.40 -993.16,8.18 -993.49,9.18 -993.60,10.40 -1006.40,10.40 -1006.84,8.18 -1007.40,7.40 -1008.18,6.84 -1009.18,6.51 -1010.40,6.40 -1010.40,-6.40 -1008.18,-6.84 -1007.40,-7.40 -1006.84,-8.18 -1006.51,-9.18">
        <request index="0"  response="0000000000000000" foes="0000000001100000" cont="0"/>
        <request index="1"  response="1000000010000000" foes="1111100011100000" cont="0"/>
        <request index="2"  response="1000000010000000" foes="1111100011100000" cont="0"/>
        <request index="3"  response="0000000000000000" foes="1110011011100000" cont="1"/>
        <request index="4"  response="0000000000000000" foes="0000011000000000" cont="0"/>
        <request index="5"  response="0000111000001111" foes="1000111000001111" cont="0"/>
        <request index="6"  response="0000111000001111" foes="1000111000001111" cont="0"/>
        <request index="7"  response="0000000000000000" foes="0110111000001110" cont="1"/>
        <request index="8"  response="0000000000000000" foes="0110000000000000" cont="0"/>
        <request index="9"  response="1000000010000000" foes="1110000011111000" cont="0"/>
        <request index="10" response="1000000010000000" foes="1110000011111000" cont="0"/>
        <request index="11" response="0000000000000000" foes="1110000011100110" cont="1"/>
        <request index="12" response="0000000000000000" foes="0000000000000110" cont="0"/>
        <request index="13" response="0000111100001110" foes="0000111110001110" cont="0"/>
        <request index="14" response="0000111100001110" foes="0000111110001110" cont="0"/>
        <request index="15" response="0000000000000000" foes="0000111001101110" cont="1"/>
    </junction>
    <junction id="J12" type="dead_end" x="-1000.00" y="100.00" incLanes="E8_0 E8_1" intLanes="" shape="-1000.00,100.00 -1006.40,100.00 -1000.00,100.00"/>
    <junction id="J13" type="dead_end" x="-1100.00" y="0.00" incLanes="-E9_0 -E9_1" intLanes="" shape="-1100.00,-0.00 -1100.00,-6.40 -1100.00,-0.00"/>
    <junction id="J14" type="dead_end" x="-900.00" y="0.00" incLanes="E10_0 E10_1" intLanes="" shape="-900.00,-0.00 -900.00,6.40 -900.00,-0.00"/>
    <junction id="J15" type="dead_end" x="-1000.00" y="-100.00" incLanes="E11_0 E11_1" intLanes="" shape="-1000.00,-100.00 -993.60,-100.00 -1000.00,-100.00"/>

    <junction id=":J11_16_0" type="internal" x="-1000.89" y="-5.44" incLanes=":J11_3_0 -E8_0 -E8_1" intLanes=":J11_5_0 :J11_5_1 :J11_7_0 :J11_8_0 :J11_9_0 :J11_9_1 :J11_13_0 :J11_13_1 :J11_15_0"/>
    <junction id=":J11_17_0" type="internal" x="-994.56" y="-0.89" incLanes=":J11_7_0 E9_0 E9_1" intLanes=":J11_1_0 :J11_1_1 :J11_3_0 :J11_9_0 :J11_9_1 :J11_11_0 :J11_12_0 :J11_13_0 :J11_13_1"/>
    <junction id=":J11_18_0" type="internal" x="-999.11" y="5.44" incLanes=":J11_11_0 -E11_0 -E11_1" intLanes=":J11_0_0 :J11_1_0 :J11_1_1 :J11_5_0 :J11_5_1 :J11_7_0 :J11_13_0 :J11_13_1 :J11_15_0"/>
    <junction id=":J11_19_0" type="internal" x="-1005.44" y="0.89" incLanes=":J11_15_0 -E10_0 -E10_1" intLanes=":J11_1_0 :J11_1_1 :J11_3_0 :J11_4_0 :J11_5_0 :J11_5_1 :J11_9_0 :J11_9_1 :J11_11_0"/>

    <connection from="-E10" to="E11" fromLane="0" toLane="0" pass="1" via=":J11_4_0" tl="J11" linkIndex="4" dir="l" state="O"/>
    <connection from="-E10" to="-E9" fromLane="0" toLane="0" via=":J11_5_0" tl="J11" linkIndex="5" dir="s" state="o"/>
    <connection from="-E10" to="-E9" fromLane="1" toLane="1" via=":J11_5_1" tl="J11" linkIndex="6" dir="s" state="o"/>
    <connection from="-E10" to="E8" fromLane="1" toLane="1" pass="1" via=":J11_7_0" tl="J11" linkIndex="7" dir="r" state="O"/>
    <connection from="-E11" to="-E9" fromLane="0" toLane="0" pass="1" via=":J11_0_0" tl="J11" linkIndex="0" dir="l" state="O"/>
    <connection from="-E11" to="E8" fromLane="0" toLane="0" via=":J11_1_0" tl="J11" linkIndex="1" dir="s" state="O"/>
    <connection from="-E11" to="E8" fromLane="1" toLane="1" via=":J11_1_1" tl="J11" linkIndex="2" dir="s" state="O"/>
    <connection from="-E11" to="E10" fromLane="1" toLane="1" pass="1" via=":J11_3_0" tl="J11" linkIndex="3" dir="r" state="O"/>
    <connection from="-E8" to="E10" fromLane="0" toLane="0" pass="1" via=":J11_8_0" tl="J11" linkIndex="8" dir="l" state="O"/>
    <connection from="-E8" to="E11" fromLane="0" toLane="0" via=":J11_9_0" tl="J11" linkIndex="9" dir="s" state="O"/>
    <connection from="-E8" to="E11" fromLane="1" toLane="1" via=":J11_9_1" tl="J11" linkIndex="10" dir="s" state="O"/>
    <connection from="-E8" to="-E9" fromLane="1" toLane="1" pass="1" via=":J11_11_0" tl="J11" linkIndex="11" dir="r" state="O"/>
    <connection from="E9" to="E8" fromLane="0" toLane="0" pass="1" via=":J11_12_0" tl="J11" linkIndex="12" dir="l" state="O"/>
    <connection from="E9" to="E10" fromLane="0" toLane="0" via=":J11_13_0" tl="J11" linkIndex="13" dir="s" state="o"/>
    <connection from="E9" to="E10" fromLane="1" toLane="1" via=":J11_13_1" tl="J11" linkIndex="14" dir="s" state="o"/>
    <connection from="E9" to="E11" fromLane="1" toLane="1" pass="1" via=":J11_15_0" tl="J11" linkIndex="15" dir="r" state="O"/>

    <connection from=":J11_0" to="-E9" fromLane="0" toLane="0" dir="l" state="M"/>
    <connection from=":J11_1" to="E8" fromLane="0" toLane="0" dir="s" state="M"/>
    <connection from=":J11_1" to="E8" fromLane="1" toLane="1" dir="s" state="M"/>
    <connection from=":J11_3" to="E10" fromLane="0" toLane="1" via=":J11_16_0" dir="r" state="m"/>
    <connection from=":J11_16" to="E10" fromLane="0" toLane="1" dir="r" state="M"/>
    <connection from=":J11_4" to="E11" fromLane="0" toLane="0" dir="l" state="M"/>
    <connection from=":J11_5" to="-E9" fromLane="0" toLane="0" dir="s" state="M"/>
    <connection from=":J11_5" to="-E9" fromLane="1" toLane="1" dir="s" state="M"/>
    <connection from=":J11_7" to="E8" fromLane="0" toLane="1" via=":J11_17_0" dir="r" state="m"/>
    <connection from=":J11_17" to="E8" fromLane="0" toLane="1" dir="r" state="M"/>
    <connection from=":J11_8" to="E10" fromLane="0" toLane="0" dir="l" state="M"/>
    <connection from=":J11_9" to="E11" fromLane="0" toLane="0" dir="s" state="M"/>
    <connection from=":J11_9" to="E11" fromLane="1" toLane="1" dir="s" state="M"/>
    <connection from=":J11_11" to="-E9" fromLane="0" toLane="1" via=":J11_18_0" dir="r" state="m"/>
    <connection from=":J11_18" to="-E9" fromLane="0" toLane="1" dir="r" state="M"/>
    <connection from=":J11_12" to="E8" fromLane="0" toLane="0" dir="l" state="M"/>
    <connection from=":J11_13" to="E10" fromLane="0" toLane="0" dir="s" state="M"/>
    <connection from=":J11_13" to="E10" fromLane="1" toLane="1" dir="s" state="M"/>
    <connection from=":J11_15" to="E11" fromLane="0" toLane="1" via=":J11_19_0" dir="r" state="m"/>
    <connection from=":J11_19" to="E11" fromLane="0" toLane="1" dir="r" state="M"/>

</net>
